<?xml version="1.0" encoding="UTF-8"?>

<!-- generated on 2025-08-20 23:18:18 by Eclipse SUMO netedit Version 1.24.0
-->

<routes xmlns:xsi="http://www.w3.org/2001/XMLSchema-instance" xsi:noNamespaceSchemaLocation="http://sumo.dlr.de/xsd/routes_file.xsd">
    <!-- Vehicles, persons and containers (sorted by depart) -->
    <trip id="v1" depart="0.00" from="E1" to="-E00"/>
    <trip id="v2" depart="0.00" from="E0" to="-E1"/>
    <trip id="v3" depart="0.00" from="E0" to="E0.50"/>
</routes>
